$ NASTRAN input file created by the Patran 2016 input file translator on
$  May       27, 2021 at 12:39:45.
$ Normal Modes Analysis, Database
$ Using Nastran default values for RESVEC
$ Direct Text Input for this Subcase
$ Direct Text Input for Bulk Data
$ Elements and Element Properties for region : AG-COLLAR
PSHELL   1       1      .022     1               1
$ Pset: "AG-COLLAR" will be imported as: "pshell.1"
CQUAD4   844     1       58      689     690     65
CQUAD4   845     1       65      690     915     64
CQUAD4   846     1       64      915     916     69
CQUAD4   847     1       69      916     917     68
CQUAD4   848     1       68      917     918     73
CQUAD4   849     1       73      918     919     72
CQUAD4   850     1       72      919     920     77
CQUAD4   851     1       77      920     921     76
CQUAD4   852     1       76      921     922     83
CQUAD4   853     1       83      922     923     82
CQUAD4   854     1       82      923     924     87
CQUAD4   855     1       87      924     925     86
CQUAD4   856     1       86      925     926     91
CQUAD4   857     1       91      926     927     90
CQUAD4   858     1       90      927     928     95
CQUAD4   859     1       95      928     929     94
CQUAD4   860     1       94      929     930     101
CQUAD4   861     1       101     930     931     100
CQUAD4   862     1       100     931     932     105
CQUAD4   863     1       105     932     933     104
$ ... 28 like lines cut
$ Elements and Element Properties for region : AG-NECK
PSHELL   2       1      .022     1               1
$ Pset: "AG-NECK" will be imported as: "pshell.2"
CQUAD4   652     2       61      63      62      688
CQUAD4   653     2       60      687     688     61
CQUAD4   654     2       60      685     686     687
CQUAD4   655     2       58      686     685     59
CQUAD4   656     2       688     62      67      789
CQUAD4   657     2       687     788     789     688
CQUAD4   658     2       687     686     787     788
CQUAD4   659     2       65      787     686     58
CQUAD4   660     2       789     67      66      792
CQUAD4   661     2       788     791     792     789
CQUAD4   662     2       788     787     790     791
CQUAD4   663     2       64      790     787     65
CQUAD4   664     2       792     66      71      795
CQUAD4   665     2       791     794     795     792
CQUAD4   666     2       791     790     793     794
CQUAD4   667     2       69      793     790     64
CQUAD4   668     2       795     71      70      798
CQUAD4   669     2       794     797     798     795
CQUAD4   670     2       794     793     796     797
CQUAD4   671     2       68      796     793     69
$ ... 172 like lines cut
$ Elements and Element Properties for region : HEAD-RING1
PSHELL   3       2      .022     2               2
$ Pset: "HEAD-RING1" will be imported as: "pshell.3"
CQUAD4   220     3       48      49      667     670
CQUAD4   221     3       48      670     673     53
CQUAD4   222     3       52      53      673     676
CQUAD4   223     3       52      676     679     57
CQUAD4   224     3       56      57      679     682
CQUAD4   225     3       56      682     287     63
CQUAD4   226     3       62      63      287     560
CQUAD4   227     3       62      560     563     67
CQUAD4   228     3       66      67      563     566
CQUAD4   229     3       66      566     569     71
CQUAD4   230     3       70      71      569     572
CQUAD4   231     3       70      572     575     75
CQUAD4   232     3       43      664     667     49
CQUAD4   233     3       43      44      45      664
CQUAD4   234     3       37      661     45      44
CQUAD4   235     3       37      38      658     661
CQUAD4   236     3       33      655     658     38
CQUAD4   237     3       33      34      652     655
CQUAD4   238     3       25      26      299     643
CQUAD4   239     3       25      643     646     30
$ ... 28 like lines cut
$ Elements and Element Properties for region : HEAD-RING2
PSHELL   4       2      .022     2               2
$ Pset: "HEAD-RING2" will be imported as: "pshell.4"
CQUAD4   76      4       290     291     582     581
CQUAD4   77      4       291     292     583     582
CQUAD4   78      4       248     249     583     292
CQUAD4   79      4       249     250     586     583
CQUAD4   80      4       582     583     586     585
CQUAD4   81      4       581     582     585     584
CQUAD4   82      4       584     585     588     587
CQUAD4   83      4       585     586     589     588
CQUAD4   84      4       250     251     589     586
CQUAD4   85      4       251     252     592     589
CQUAD4   86      4       588     589     592     591
CQUAD4   87      4       587     588     591     590
CQUAD4   88      4       590     591     594     593
CQUAD4   89      4       591     592     595     594
CQUAD4   90      4       252     253     595     592
CQUAD4   91      4       253     254     597     595
CQUAD4   92      4       254     255     600     597
CQUAD4   93      4       255     256     295     600
CQUAD4   94      4       294     599     600     295
CQUAD4   95      4       293     598     599     294
$ ... 124 like lines cut
$ Elements and Element Properties for region : HEAD-RING3
PSHELL   5       2      .022     2               2
$ Pset: "HEAD-RING3" will be imported as: "pshell.5"
CQUAD4   268     5       125     248     247     133
CQUAD4   269     5       132     133     247     246
CQUAD4   270     5       131     132     246     245
CQUAD4   271     5       130     131     245     244
CQUAD4   272     5       129     130     244     243
CQUAD4   273     5       166     167     281     280
CQUAD4   274     5       158     166     280     239
CQUAD4   275     5       158     239     279     165
CQUAD4   276     5       164     165     279     278
CQUAD4   277     5       163     164     278     277
CQUAD4   278     5       162     163     277     276
CQUAD4   279     5       167     168     282     281
CQUAD4   280     5       168     169     283     282
CQUAD4   281     5       169     170     284     283
CQUAD4   282     5       123     284     170     171
CQUAD4   283     5       123     171     172     285
CQUAD4   284     5       126     286     285     172
CQUAD4   285     5       124     286     126     127
CQUAD4   286     5       124     127     128     242
CQUAD4   287     5       128     129     243     242
$ ... 28 like lines cut
$ Elements and Element Properties for region : BRACKET
PSHELL   6       2      .022     2               2
$ Pset: "BRACKET" will be imported as: "pshell.6"
CQUAD4   16      6       41      225     226     42
CQUAD4   17      6       227     226     225     228
CQUAD4   18      6       229     230     231     232
CQUAD4   19      6       233     231     230     234
CQUAD4   20      6       60      302     303     61
CQUAD4   21      6       304     303     302     305
CQUAD4   22      6       306     307     308     309
CQUAD4   23      6       310     308     307     311
CQUAD4   24      6       78      316     317     79
CQUAD4   25      6       318     317     316     319
CQUAD4   26      6       320     321     322     323
CQUAD4   27      6       324     322     321     325
CQUAD4   28      6       96      330     331     97
CQUAD4   29      6       332     331     330     333
CQUAD4   30      6       334     335     336     337
CQUAD4   31      6       338     336     335     339
CQUAD4   32      6       4       344     345     5
CQUAD4   33      6       346     345     344     347
CQUAD4   34      6       348     349     350     351
CQUAD4   35      6       352     350     349     353
$ ... 40 like lines cut
$ Elements and Element Properties for region : SHAFT-1-SECT6
PBARL    7       3               ROD
        .1016
$ Pset: "SHAFT-1-SECT6" will be imported as: "pbarl.7"
CBAR     1       7       115     116    1.      1.       0.
$ Elements and Element Properties for region : SHAFT-1-SECT7
PBARL    8       3               ROD
        .1016
$ Pset: "SHAFT-1-SECT7" will be imported as: "pbarl.8"
CBAR     903     8       115     968    1.      1.       0.
CBAR     904     8       968     110    1.      1.       0.
$ Referenced Material Records
$ Material Record : AG
$ Description of Material : Date: 18-Apr-21           Time: 19:57:24
MAT1     1      2.+11           .29     8027.                   .3
$ Material Record : HEAD
$ Description of Material : Date: 18-Apr-21           Time: 19:57:24
MAT1     2      2.+11           .29     8027.                   .3
$ Material Record : SHAFT
$ Description of Material : Date: 18-Apr-21           Time: 19:57:24
MAT1     3      2.+11           .29     10884.                  .3
$ Nodes of Group : GBLLCLMODEL
$ Nodes of Group : GBLLCLMODEL
GRID    1       0       -4.14-2 0.3147841.2518940       0       
GRID    2       0       0       0.3175  1.2518940       0       
GRID    3       0       0.0414420.3147841.2518940       0       
GRID    4       0       0       0.3175  1.0662790       0       
GRID    5       0       0       0.3175  1.0362790       0       
GRID    6       0       -4.14-2 0.3147840.9719340       0       
GRID    7       0       0       0.3175  0.9719340       0       
GRID    8       0       0.0414420.3147840.9719340       0       
GRID    9       0       -1.22-1 0.2933321.2518940       0       
GRID    10      0       -8.22-2 0.3066811.2518940       0       
GRID    11      0       -1.22-1 0.2933320.9719340       0       
GRID    12      0       -8.22-2 0.3066810.9719340       0       
GRID    13      0       -1.93-1 0.25189 1.2518940       0       
GRID    14      0       -0.158750.2749631.2518940       0       
GRID    15      0       -1.93-1 0.25189 0.9719340       0       
GRID    16      0       -0.158750.2749630.9719340       0       
GRID    17      0       -0.251890.1932821.2518940       0       
GRID    18      0       -2.25-1 0.2245061.2518940       0       
GRID    19      0       -0.251890.1932820.9719340       0       
GRID    20      0       -2.25-1 0.2245060.9719340       0       
$ ... 596 like lines cut
$ Loads for Load Case : Default
$ Referenced Coordinate Frames
ENDDATA
