$ Structural Verification Mesh (Free Field)
$ ------------------------------------------------
$ Nodes
GRID, 1,, 0.0, 5.0, 0.0
GRID, 2,, 4.0, 5.0, 0.0
GRID, 3,, 4.0, 9.0, 0.0
GRID, 4,, 0.0, 9.0, 0.0
GRID, 5,, 8.0, 7.0, 0.0
$ ------------------------------------------------
$ Material & Properties
MAT1, 1, 2.1+11,, 0.3, 7850.
PSHELL, 1, 1, 0.1
PBAR, 2, 1, 0.01
$ ------------------------------------------------
$ Elements
CQUAD4, 1, 1, 1, 2, 3, 4
CBAR, 2, 2, 3, 5
$ ------------------------------------------------
$ Loads
$ SID, G, CID, F, N1, N2, N3
FORCE, 1, 5,, 100.0, 0.6, -0.8, 0.0
$ ------------------------------------------------
$ Constraints
$ SID, G, C, D
SPC, 1, 1, 123
SPC, 1, 4, 123
ENDDATA
